/*--------------------------------*- C++ -*----------------------------------*\
  =========                 |
  \\      /  F ield         | OpenFOAM: The Open Source CFD Toolbox
   \\    /   O peration     | Website:  https://openfoam.org
    \\  /    A nd           | Version:  dev
     \\/     M anipulation  |
\*---------------------------------------------------------------------------*/
FoamFile
{
    version     2.0;
    format      ascii;
    class       dictionary;
    object      blockMeshDict;
}
// * * * * * * * * * * * * * * * * * * * * * * * * * * * * * * * * * * * * * //

convertToMeters 1;

vertices
(
    (-500 -500 0)
    (500 -500 0)
    (500 500 0)
    (-500 500 0)
    (-500 -500 1)
    (500 -500 1)
    (500 500 1)
    (-500 500 1)
);

blocks
(
    hex (0 1 2 3 4 5 6 7) (128 128 1) simpleGrading (1 1 1)
);

edges
(
);

boundary
(
    top
    {
        type cyclic;
        neighbourPatch bottom;
        faces
        (
            (3 7 6 2)
        );
    }
    bottom
    {
        type cyclic;
        neighbourPatch top;
        faces
        (
            (1 0 4 5)
        );
    }

    left
   {
        type    cyclic;
        neighbourPatch right;
        faces ((0 4 7 3));
   }
    right
    {
        type    cyclic;
        neighbourPatch left;
        //faces ((1 5 6 2));
        faces ((1 2 6 5));
    }

    frontAndBack
    {
        type empty;
        faces
        (
            (0 3 2 1)
            (4 5 6 7)
        );
    }
);

mergePatchPairs
(
);

// ************************************************************************* //
